<?xml version="1.0" encoding="UTF-8"?>

<!-- generated on 2024-05-24 19:11:19 by Eclipse SUMO netedit Version 1.19.0
<configuration xmlns:xsi="http://www.w3.org/2001/XMLSchema-instance" xsi:noNamespaceSchemaLocation="http://sumo.dlr.de/xsd/neteditConfiguration.xsd">

    <input>
        <sumo-net-file value="D:\D-Downloads\Tarobro (2)\Tarobro\1.net.xml"/>
    </input>

    <output>
        <output-file value="D:\D-Downloads\Tarobro (2)\Tarobro\1.net.xml"/>
    </output>

    <processing>
        <geometry.min-radius.fix.railways value="false"/>
        <geometry.max-grade.fix value="false"/>
        <offset.disable-normalization value="true"/>
        <lefthand value="0"/>
    </processing>

    <junctions>
        <no-turnarounds value="true"/>
        <junctions.corner-detail value="5"/>
        <junctions.limit-turn-speed value="5.50"/>
        <rectangular-lane-cut value="0"/>
    </junctions>

    <pedestrian>
        <walkingareas value="0"/>
    </pedestrian>

</configuration>
-->

<net version="1.16" junctionCornerDetail="5" limitTurnSpeed="5.50" xmlns:xsi="http://www.w3.org/2001/XMLSchema-instance" xsi:noNamespaceSchemaLocation="http://sumo.dlr.de/xsd/net_file.xsd">

    <location netOffset="0.00,0.00" convBoundary="20.00,-35.98,350.00,0.00" origBoundary="-10000000000.00,-10000000000.00,10000000000.00,10000000000.00" projParameter="!"/>

    <edge id=":J1_0" function="internal">
        <lane id=":J1_0_0" index="0" speed="11.94" length="5.61" shape="118.89,-15.12 119.88,-14.71 120.59,-14.50 121.33,-14.41 122.40,-14.40"/>
        <lane id=":J1_0_1" index="1" speed="13.89" length="5.61" shape="118.89,-15.12 122.40,-11.20"/>
        <lane id=":J1_0_2" index="2" speed="13.89" length="5.61" shape="118.89,-15.12 122.40,-8.00"/>
    </edge>
    <edge id=":J1_3" function="internal">
        <lane id=":J1_3_0" index="0" speed="13.89" length="3.66" shape="118.74,-11.20 122.40,-11.20"/>
        <lane id=":J1_3_1" index="1" speed="13.89" length="3.66" shape="118.74,-8.00 122.40,-8.00"/>
        <lane id=":J1_3_2" index="2" speed="13.89" length="3.66" shape="118.74,-4.80 122.40,-4.80"/>
        <lane id=":J1_3_3" index="3" speed="13.89" length="3.66" shape="118.74,-1.60 122.40,-1.60"/>
    </edge>
    <edge id=":J2_0" function="internal">
        <lane id=":J2_0_0" index="0" speed="13.89" length="8.00" shape="246.00,-11.20 254.00,-11.20"/>
        <lane id=":J2_0_1" index="1" speed="13.89" length="8.00" shape="246.00,-8.00 254.00,-8.00"/>
        <lane id=":J2_0_2" index="2" speed="13.89" length="8.00" shape="246.00,-4.80 254.00,-4.80"/>
        <lane id=":J2_0_3" index="3" speed="13.89" length="8.00" shape="246.00,-1.60 254.00,-1.60"/>
    </edge>

    <edge id="E0" from="J0" to="J1" priority="-1">
        <lane id="E0_0" index="0" speed="13.89" length="98.74" shape="20.00,-11.20 118.74,-11.20"/>
        <lane id="E0_1" index="1" speed="13.89" length="98.74" shape="20.00,-8.00 118.74,-8.00"/>
        <lane id="E0_2" index="2" speed="13.89" length="98.74" shape="20.00,-4.80 118.74,-4.80"/>
        <lane id="E0_3" index="3" speed="13.89" length="98.74" shape="20.00,-1.60 118.74,-1.60"/>
    </edge>
    <edge id="E1" from="J1" to="J2" priority="-1">
        <lane id="E1_0" index="0" speed="13.89" length="123.60" shape="122.40,-14.40 246.00,-14.40"/>
        <lane id="E1_1" index="1" speed="13.89" length="123.60" shape="122.40,-11.20 246.00,-11.20"/>
        <lane id="E1_2" index="2" speed="13.89" length="123.60" shape="122.40,-8.00 246.00,-8.00"/>
        <lane id="E1_3" index="3" speed="13.89" length="123.60" shape="122.40,-4.80 246.00,-4.80"/>
        <lane id="E1_4" index="4" speed="13.89" length="123.60" shape="122.40,-1.60 246.00,-1.60"/>
    </edge>
    <edge id="E10" from="J2" to="J16" priority="-1">
        <lane id="E10_0" index="0" speed="13.89" length="96.00" shape="254.00,-11.20 350.00,-11.20"/>
        <lane id="E10_1" index="1" speed="13.89" length="96.00" shape="254.00,-8.00 350.00,-8.00"/>
        <lane id="E10_2" index="2" speed="13.89" length="96.00" shape="254.00,-4.80 350.00,-4.80"/>
        <lane id="E10_3" index="3" speed="13.89" length="96.00" shape="254.00,-1.60 350.00,-1.60"/>
    </edge>
    <edge id="E9" from="J15" to="J1" priority="-1">
        <lane id="E9_0" index="0" speed="13.89" length="56.51" shape="66.98,-37.45 118.89,-15.12"/>
    </edge>

    <junction id="J0" type="dead_end" x="20.00" y="0.00" incLanes="" intLanes="" shape="20.00,0.00 20.00,-12.80"/>
    <junction id="J1" type="priority" x="150.00" y="0.00" incLanes="E9_0 E0_0 E0_1 E0_2 E0_3" intLanes=":J1_0_0 :J1_0_1 :J1_0_2 :J1_3_0 :J1_3_1 :J1_3_2 :J1_3_3" shape="122.40,0.00 122.40,-16.00 121.30,-16.02 120.92,-16.08 120.54,-16.18 120.10,-16.35 119.52,-16.59 118.26,-13.65 118.74,-12.80 118.74,0.00">
        <request index="0" response="1111000" foes="1111000" cont="0"/>
        <request index="1" response="1111000" foes="1111000" cont="0"/>
        <request index="2" response="1111000" foes="1111000" cont="0"/>
        <request index="3" response="0000000" foes="0000111" cont="0"/>
        <request index="4" response="0000000" foes="0000111" cont="0"/>
        <request index="5" response="0000000" foes="0000111" cont="0"/>
        <request index="6" response="0000000" foes="0000111" cont="0"/>
    </junction>
    <junction id="J15" type="dead_end" x="66.35" y="-35.98" incLanes="" intLanes="" shape="66.35,-35.98 67.61,-38.92"/>
    <junction id="J16" type="dead_end" x="350.00" y="0.00" incLanes="E10_0 E10_1 E10_2 E10_3" intLanes="" shape="350.00,-12.80 350.00,0.00"/>
    <junction id="J2" type="priority" x="250.00" y="0.00" incLanes="E1_0 E1_1 E1_2 E1_3 E1_4" intLanes=":J2_0_0 :J2_0_1 :J2_0_2 :J2_0_3" shape="254.00,0.00 254.00,-12.80 250.97,-13.63 249.03,-15.17 247.79,-15.76 246.00,-16.00 246.00,0.00">
        <request index="0" response="0000" foes="0000" cont="0"/>
        <request index="1" response="0000" foes="0000" cont="0"/>
        <request index="2" response="0000" foes="0000" cont="0"/>
        <request index="3" response="0000" foes="0000" cont="0"/>
    </junction>

    <connection from="E0" to="E1" fromLane="0" toLane="1" via=":J1_3_0" dir="s" state="M"/>
    <connection from="E0" to="E1" fromLane="1" toLane="2" via=":J1_3_1" dir="s" state="M"/>
    <connection from="E0" to="E1" fromLane="2" toLane="3" via=":J1_3_2" dir="s" state="M"/>
    <connection from="E0" to="E1" fromLane="3" toLane="4" via=":J1_3_3" dir="s" state="M"/>
    <connection from="E1" to="E10" fromLane="1" toLane="0" via=":J2_0_0" dir="s" state="M"/>
    <connection from="E1" to="E10" fromLane="2" toLane="1" via=":J2_0_1" dir="s" state="M"/>
    <connection from="E1" to="E10" fromLane="3" toLane="2" via=":J2_0_2" dir="s" state="M"/>
    <connection from="E1" to="E10" fromLane="4" toLane="3" via=":J2_0_3" dir="s" state="M"/>
    <connection from="E9" to="E1" fromLane="0" toLane="0" via=":J1_0_0" dir="s" state="m"/>
    <connection from="E9" to="E1" fromLane="0" toLane="1" via=":J1_0_1" dir="s" state="m"/>
    <connection from="E9" to="E1" fromLane="0" toLane="2" via=":J1_0_2" dir="s" state="m"/>

    <connection from=":J1_0" to="E1" fromLane="0" toLane="0" dir="s" state="M"/>
    <connection from=":J1_0" to="E1" fromLane="1" toLane="1" dir="s" state="M"/>
    <connection from=":J1_0" to="E1" fromLane="2" toLane="2" dir="s" state="M"/>
    <connection from=":J1_3" to="E1" fromLane="0" toLane="1" dir="s" state="M"/>
    <connection from=":J1_3" to="E1" fromLane="1" toLane="2" dir="s" state="M"/>
    <connection from=":J1_3" to="E1" fromLane="2" toLane="3" dir="s" state="M"/>
    <connection from=":J1_3" to="E1" fromLane="3" toLane="4" dir="s" state="M"/>
    <connection from=":J2_0" to="E10" fromLane="0" toLane="0" dir="s" state="M"/>
    <connection from=":J2_0" to="E10" fromLane="1" toLane="1" dir="s" state="M"/>
    <connection from=":J2_0" to="E10" fromLane="2" toLane="2" dir="s" state="M"/>
    <connection from=":J2_0" to="E10" fromLane="3" toLane="3" dir="s" state="M"/>

</net>
