<?xml version="1.0" encoding="UTF-8"?>

<!-- generated on 2024-05-24 11:45:22 by Eclipse SUMO netedit Version 1.19.0
-->

<routes xmlns:xsi="http://www.w3.org/2001/XMLSchema-instance" xsi:noNamespaceSchemaLocation="http://sumo.dlr.de/xsd/routes_file.xsd">
    <!-- Routes -->
    <route id="r_0" edges="E9 E1 E10"/>
    <route id="r_1" edges="E9"/>
    <!-- Vehicles, persons and containers (sorted by depart) -->

    <flow id="f_0" begin="0.00" from="E0" to="E10" via="E1" departLane="best" end="3600.00" vehsPerHour="1800"/>
    <flow id="f_1" begin="0.00" from="E0" to="E10" via="E1" departLane="best" end="3600.00" vehsPerHour="1800"/>
    <flow id="f_2" begin="0.00" from="E0" to="E10" via="E1" departLane="best" end="3600.00" vehsPerHour="1800"/>

    <vehicle id="v_0" depart="5.00" route="r_0"/>

</routes>
