<?xml version="1.0" encoding="UTF-8"?>

<!-- generated on 2024-05-24 11:48:33 by Eclipse SUMO netedit Version 1.19.0
-->

<routes xmlns:xsi="http://www.w3.org/2001/XMLSchema-instance" xsi:noNamespaceSchemaLocation="http://sumo.dlr.de/xsd/routes_file.xsd">
    <!-- Vehicles, persons and containers (sorted by depart) -->
    <!-- <trip id="t_0" depart="2.00" from="E9" to="E10" via="E1"/> -->

    <!-- <flow id="f_0" begin="0.00" from="E0" to="E10" via="E1" end="3600.00" vehsPerHour="1800"/>
    <flow id="f_1" begin="0.00" from="E0" to="E10" via="E1" end="3600.00" vehsPerHour="1800"/>
    <flow id="f_2" begin="0.00" from="E0" to="E10" via="E1" end="3600.00" vehsPerHour="1800"/> -->


    <!-- The vehicle from ramp -->
    <!-- <vehicle id="v_0" depart="5.00" from="E9" to="E10" via="E1"/>   -->
    <vehicle id="1" depart="0.00" >
        <route edges="E0 E1 E10"/>
    </vehicle>

    <vehicle id="2" depart="2.00" >
        <route edges="E0 E1 E10"/>
    </vehicle>

    <vehicle id="3" depart="4.00" >
        <route edges="E0 E1 E10"/>
    </vehicle>

    <vehicle id="4" depart="6.00" >
        <route edges="E0 E1 E10"/>
    </vehicle>

    <vehicle id="5" depart="8.00" >
        <route edges="E0 E1 E10"/>
    </vehicle>

    <vehicle id="6" depart="10.00" >
        <route edges="E9 E1 E10"/>
    </vehicle>

    <vehicle id="7" depart="12.00" >
        <route edges="E0 E1 E10"/>
    </vehicle>

    <vehicle id="8" depart="14.00" >
        <route edges="E0 E1 E10"/>
    </vehicle>

    <vehicle id="9" depart="16.00" >
        <route edges="E0 E1 E10"/>
    </vehicle>

    <vehicle id="10" depart="18.00" >
        <route edges="E0 E1 E10"/>
    </vehicle>

    <vehicle id="11" depart="20.00" >
        <route edges="E0 E1 E10"/>
    </vehicle>

    <vehicle id="12" depart="22.00" >
        <route edges="E0 E1 E10"/>
    </vehicle>

    <vehicle id="13" depart="24.00" >
        <route edges="E0 E1 E10"/>
    </vehicle>

    <vehicle id="14" depart="26.00" >
        <route edges="E0 E1 E10"/>
    </vehicle>

    <vehicle id="15" depart="28.00" >
        <route edges="E0 E1 E10"/>
    </vehicle>

    <vehicle id="16" depart="30.00" >
        <route edges="E0 E1 E10"/>
    </vehicle>

    <vehicle id="17" depart="32.00" >
        <route edges="E0 E1 E10"/>
    </vehicle>

    <vehicle id="18" depart="34.00" >
        <route edges="E0 E1 E10"/>
    </vehicle>

    <vehicle id="19" depart="36.00" >
        <route edges="E0 E1 E10"/>
    </vehicle>

    <vehicle id="20" depart="38.00" >
        <route edges="E0 E1 E10"/>
    </vehicle>



    <vehicle id="21" depart="40.00" >
        <route edges="E0 E1 E10"/>
    </vehicle>

    <vehicle id="22" depart="42.00" >
        <route edges="E0 E1 E10"/>
    </vehicle>

    <vehicle id="23" depart="44.00" >
        <route edges="E0 E1 E10"/>
    </vehicle>

    <vehicle id="24" depart="46.00" >
        <route edges="E0 E1 E10"/>
    </vehicle>

    <vehicle id="25" depart="48.00" >
        <route edges="E0 E1 E10"/>
    </vehicle>

    <vehicle id="26" depart="50.00" >
        <route edges="E0 E1 E10"/>
    </vehicle>

    <vehicle id="27" depart="52.00" >
        <route edges="E0 E1 E10"/>
    </vehicle>



</routes>
